// Generated for: spectre
// Generated on: Oct 14 15:01:03 2015
// Design library name: AtoDConverters
// Design cell name: ScasubImprSAR
// Design view name: schematic
simulator lang=spectre
global 0 vcc! vdd!
