// Generated for: spectre
// Generated on: Oct 14 12:47:12 2015
// Design library name: AtoDConverters
// Design cell name: ScasubNormSAR
// Design view name: schematic
simulator lang=spectre
global 0 vcc! vdd!
